<?xml version="1.0" encoding="UTF-8"?>

<!-- generated on 2026-07-11T14:37:29.503026+03:00 by Eclipse SUMO netedit 1.27.1
<neteditConfiguration xmlns:xsi="http://www.w3.org/2001/XMLSchema-instance" xsi:noNamespaceSchemaLocation="http://sumo.dlr.de/xsd/neteditConfiguration.xsd">

    <input>
        <sumocfg-file value="C:\Users\Prank\trading-lab\trafficproject\sumoconfig.sumocfg"/>
        <route-files value="C:\Users\Prank\trading-lab\trafficproject\sumoconfig.rou.xml"/>
        <sumo-net-file value="C:\Users\Prank\trading-lab\trafficproject\networkfile.net.xml"/>
    </input>

    <output>
        <output-file value="C:\Users\Prank\trading-lab\trafficproject\networkfile.net.xml"/>
    </output>

    <processing>
        <geometry.min-radius.fix.railways value="false"/>
        <geometry.avoid-overlap value="false"/>
        <geometry.max-grade.fix value="false"/>
        <offset.disable-normalization value="true"/>
    </processing>

    <junctions>
        <no-turnarounds value="true"/>
    </junctions>

</neteditConfiguration>
-->

<net version="1.20" junctionCornerDetail="5" limitTurnSpeed="5.50" avoidOverlap="0" xmlns:xsi="http://www.w3.org/2001/XMLSchema-instance" xsi:noNamespaceSchemaLocation="http://sumo.dlr.de/xsd/net_file.xsd">

    <location netOffset="0.00,0.00" convBoundary="-100.00,-100.00,100.00,100.00" origBoundary="-10000000000.00,-10000000000.00,10000000000.00,10000000000.00" projParameter="!"/>

    <edge id=":clusterJ4_J5_0" function="internal">
        <lane id=":clusterJ4_J5_0_0" index="0" speed="6.48" length="9.04" shape="13.71,6.69 11.25,7.01 9.49,8.04 8.43,9.78 8.08,12.24"/>
    </edge>
    <edge id=":clusterJ4_J5_1" function="internal">
        <lane id=":clusterJ4_J5_1_0" index="0" speed="13.89" length="27.30" shape="13.71,6.69 -13.54,6.69"/>
        <lane id=":clusterJ4_J5_1_1" index="1" speed="13.89" length="27.30" shape="13.76,3.49 -13.59,3.49"/>
    </edge>
    <edge id=":clusterJ4_J5_3" function="internal">
        <lane id=":clusterJ4_J5_3_0" index="0" speed="11.56" length="30.41" shape="13.76,3.49 6.62,1.74 -0.41,-2.61 -5.78,-8.53 -7.92,-14.98"/>
    </edge>
    <edge id=":clusterJ4_J5_4" function="internal">
        <lane id=":clusterJ4_J5_4_0" index="0" speed="13.89" length="27.44" shape="13.80,0.29 -13.64,0.29"/>
    </edge>
    <edge id=":clusterJ4_J5_5" function="internal">
        <lane id=":clusterJ4_J5_5_0" index="0" speed="10.68" length="25.79" shape="13.80,0.29 7.53,-1.09 1.54,-4.58 -2.95,-9.45 -4.72,-14.98"/>
        <lane id=":clusterJ4_J5_5_1" index="1" speed="10.18" length="23.34" shape="13.80,0.29 8.37,-1.13 3.44,-4.68 -0.14,-9.57 -1.52,-14.98"/>
    </edge>
    <edge id=":clusterJ4_J5_7" function="internal">
        <lane id=":clusterJ4_J5_7_0" index="0" speed="5.58" length="9.35" shape="13.80,0.29 10.24,-2.16 9.08,-4.58 10.31,-6.96 13.95,-9.31"/>
        <lane id=":clusterJ4_J5_7_1" index="1" speed="4.72" length="9.35" shape="13.80,0.29 11.43,-1.35 10.65,-2.96 11.48,-4.54 13.90,-6.11"/>
        <lane id=":clusterJ4_J5_7_2" index="2" speed="3.65" length="9.35" shape="13.80,0.29 12.62,-0.53 12.23,-1.33 12.64,-2.13 13.85,-2.91"/>
    </edge>
    <edge id=":clusterJ4_J5_10" function="internal">
        <lane id=":clusterJ4_J5_10_0" index="0" speed="6.63" length="9.29" shape="8.08,-14.99 8.44,-12.54 9.55,-10.77 11.38,-9.70 13.95,-9.31"/>
    </edge>
    <edge id=":clusterJ4_J5_11" function="internal">
        <lane id=":clusterJ4_J5_11_0" index="0" speed="13.89" length="27.23" shape="8.08,-14.99 8.08,12.24"/>
        <lane id=":clusterJ4_J5_11_1" index="1" speed="13.89" length="27.23" shape="4.88,-14.99 4.88,12.24"/>
    </edge>
    <edge id=":clusterJ4_J5_13" function="internal">
        <lane id=":clusterJ4_J5_13_0" index="0" speed="11.56" length="10.19" shape="4.88,-14.99 3.22,-7.87 1.71,-5.42"/>
    </edge>
    <edge id=":clusterJ4_J5_14" function="internal">
        <lane id=":clusterJ4_J5_14_0" index="0" speed="13.89" length="27.22" shape="1.68,-14.99 1.68,12.23"/>
    </edge>
    <edge id=":clusterJ4_J5_15" function="internal">
        <lane id=":clusterJ4_J5_15_0" index="0" speed="10.67" length="25.78" shape="1.68,-14.99 0.37,-8.75 -3.09,-2.80 -7.98,1.67 -13.59,3.49"/>
        <lane id=":clusterJ4_J5_15_1" index="1" speed="10.17" length="23.33" shape="1.68,-14.99 0.30,-9.58 -3.28,-4.69 -8.20,-1.13 -13.64,0.29"/>
    </edge>
    <edge id=":clusterJ4_J5_17" function="internal">
        <lane id=":clusterJ4_J5_17_0" index="0" speed="5.58" length="9.35" shape="1.68,-14.99 -0.72,-11.39 -3.12,-10.18 -5.52,-11.38 -7.92,-14.98"/>
        <lane id=":clusterJ4_J5_17_1" index="1" speed="4.72" length="9.35" shape="1.68,-14.99 0.08,-12.59 -1.52,-11.78 -3.12,-12.58 -4.72,-14.98"/>
        <lane id=":clusterJ4_J5_17_2" index="2" speed="3.65" length="9.35" shape="1.68,-14.99 0.88,-13.79 0.08,-13.39 -0.72,-13.79 -1.52,-14.98"/>
    </edge>
    <edge id=":clusterJ4_J5_40" function="internal">
        <lane id=":clusterJ4_J5_40_0" index="0" speed="11.56" length="20.22" shape="1.71,-5.42 -1.09,-0.87 -7.02,4.49 -13.54,6.69"/>
    </edge>
    <edge id=":clusterJ4_J5_20" function="internal">
        <lane id=":clusterJ4_J5_20_0" index="0" speed="6.61" length="9.26" shape="-13.78,-9.31 -11.22,-9.70 -9.39,-10.77 -8.29,-12.53 -7.92,-14.98"/>
    </edge>
    <edge id=":clusterJ4_J5_21" function="internal">
        <lane id=":clusterJ4_J5_21_0" index="0" speed="13.89" length="27.69" shape="-13.78,-9.31 13.95,-9.31"/>
        <lane id=":clusterJ4_J5_21_1" index="1" speed="13.89" length="27.69" shape="-13.73,-6.11 13.90,-6.11"/>
    </edge>
    <edge id=":clusterJ4_J5_23" function="internal">
        <lane id=":clusterJ4_J5_23_0" index="0" speed="11.45" length="30.55" shape="-13.73,-6.11 -6.58,-4.53 0.51,-0.26 5.92,5.67 8.08,12.24"/>
    </edge>
    <edge id=":clusterJ4_J5_24" function="internal">
        <lane id=":clusterJ4_J5_24_0" index="0" speed="13.89" length="27.54" shape="-13.69,-2.91 13.85,-2.91"/>
    </edge>
    <edge id=":clusterJ4_J5_25" function="internal">
        <lane id=":clusterJ4_J5_25_0" index="0" speed="10.57" length="25.85" shape="-13.69,-2.91 -7.41,-1.68 -1.41,1.72 3.11,6.60 4.88,12.24"/>
        <lane id=":clusterJ4_J5_25_1" index="1" speed="10.06" length="23.33" shape="-13.69,-2.91 -8.25,-1.60 -3.30,1.92 0.29,6.82 1.68,12.23"/>
    </edge>
    <edge id=":clusterJ4_J5_27" function="internal">
        <lane id=":clusterJ4_J5_27_0" index="0" speed="5.58" length="9.35" shape="-13.69,-2.91 -10.05,-0.57 -8.81,1.81 -9.98,4.23 -13.54,6.69"/>
        <lane id=":clusterJ4_J5_27_1" index="1" speed="4.72" length="9.35" shape="-13.69,-2.91 -11.26,-1.35 -10.44,0.24 -11.21,1.85 -13.59,3.49"/>
        <lane id=":clusterJ4_J5_27_2" index="2" speed="3.65" length="9.35" shape="-13.69,-2.91 -12.47,-2.13 -12.06,-1.34 -12.45,-0.53 -13.64,0.29"/>
    </edge>
    <edge id=":clusterJ4_J5_30" function="internal">
        <lane id=":clusterJ4_J5_30_0" index="0" speed="6.47" length="9.03" shape="-7.92,12.23 -8.27,9.77 -9.32,8.03 -11.08,7.00 -13.54,6.69"/>
    </edge>
    <edge id=":clusterJ4_J5_31" function="internal">
        <lane id=":clusterJ4_J5_31_0" index="0" speed="13.89" length="27.21" shape="-7.92,12.23 -7.92,-14.98"/>
        <lane id=":clusterJ4_J5_31_1" index="1" speed="13.89" length="27.21" shape="-4.72,12.23 -4.72,-14.98"/>
    </edge>
    <edge id=":clusterJ4_J5_33" function="internal">
        <lane id=":clusterJ4_J5_33_0" index="0" speed="11.46" length="10.02" shape="-4.72,12.23 -3.03,5.10 -1.60,2.81"/>
    </edge>
    <edge id=":clusterJ4_J5_34" function="internal">
        <lane id=":clusterJ4_J5_34_0" index="0" speed="13.89" length="27.22" shape="-1.52,12.23 -1.52,-14.98"/>
    </edge>
    <edge id=":clusterJ4_J5_35" function="internal">
        <lane id=":clusterJ4_J5_35_0" index="0" speed="10.57" length="25.84" shape="-1.52,12.23 -0.19,5.98 3.31,0.02 8.24,-4.42 13.90,-6.11"/>
        <lane id=":clusterJ4_J5_35_1" index="1" speed="10.07" length="23.33" shape="-1.52,12.23 -0.13,6.82 3.47,1.92 8.42,-1.60 13.85,-2.91"/>
    </edge>
    <edge id=":clusterJ4_J5_37" function="internal">
        <lane id=":clusterJ4_J5_37_0" index="0" speed="5.58" length="9.35" shape="-1.52,12.23 0.88,8.63 3.28,7.44 5.68,8.64 8.08,12.24"/>
        <lane id=":clusterJ4_J5_37_1" index="1" speed="4.72" length="9.35" shape="-1.52,12.23 0.08,9.83 1.68,9.03 3.28,9.84 4.88,12.24"/>
        <lane id=":clusterJ4_J5_37_2" index="2" speed="3.65" length="9.35" shape="-1.52,12.23 -0.72,11.03 0.08,10.63 0.88,11.03 1.68,12.23"/>
    </edge>
    <edge id=":clusterJ4_J5_41" function="internal">
        <lane id=":clusterJ4_J5_41_0" index="0" speed="11.46" length="20.52" shape="-1.60,2.81 1.35,-1.92 7.35,-7.25 13.95,-9.31"/>
    </edge>

    <edge id="-E0" from="J1" to="clusterJ4_J5" priority="-1" length="100.00" shape="100.00,0.00 -0.09,-1.52">
        <lane id="-E0_0" index="0" speed="13.89" length="100.00" shape="99.88,8.00 13.71,6.69"/>
        <lane id="-E0_1" index="1" speed="13.89" length="100.00" shape="99.93,4.80 13.76,3.49"/>
        <lane id="-E0_2" index="2" speed="13.89" length="100.00" shape="99.98,1.60 13.80,0.29"/>
    </edge>
    <edge id="-E0.57" from="clusterJ4_J5" to="J0" priority="-1" length="100.00" shape="-0.09,-1.52 -100.00,0.00">
        <lane id="-E0.57_0" index="0" speed="13.89" length="100.00" shape="-13.54,6.69 -99.88,8.00"/>
        <lane id="-E0.57_1" index="1" speed="13.89" length="100.00" shape="-13.59,3.49 -99.93,4.80"/>
        <lane id="-E0.57_2" index="2" speed="13.89" length="100.00" shape="-13.64,0.29 -99.98,1.60"/>
    </edge>
    <edge id="-E1" from="J3" to="clusterJ4_J5" priority="-1" length="100.00" shape="0.00,-100.00 0.09,1.51">
        <lane id="-E1_0" index="0" speed="13.89" length="100.00" shape="8.00,-100.01 8.08,-14.99"/>
        <lane id="-E1_1" index="1" speed="13.89" length="100.00" shape="4.80,-100.00 4.88,-14.99"/>
        <lane id="-E1_2" index="2" speed="13.89" length="100.00" shape="1.60,-100.00 1.68,-14.99"/>
    </edge>
    <edge id="-E1.41" from="clusterJ4_J5" to="J2" priority="-1" length="100.00" shape="0.09,1.51 0.00,100.00">
        <lane id="-E1.41_0" index="0" speed="13.89" length="100.00" shape="8.08,12.24 8.00,100.01"/>
        <lane id="-E1.41_1" index="1" speed="13.89" length="100.00" shape="4.88,12.24 4.80,100.00"/>
        <lane id="-E1.41_2" index="2" speed="13.89" length="100.00" shape="1.68,12.23 1.60,100.00"/>
    </edge>
    <edge id="E0" from="J0" to="clusterJ4_J5" priority="-1" length="100.00" shape="-100.00,0.00 -0.09,-1.52">
        <lane id="E0_0" index="0" speed="13.89" length="100.00" shape="-100.12,-8.00 -13.78,-9.31"/>
        <lane id="E0_1" index="1" speed="13.89" length="100.00" shape="-100.07,-4.80 -13.73,-6.11"/>
        <lane id="E0_2" index="2" speed="13.89" length="100.00" shape="-100.02,-1.60 -13.69,-2.91"/>
    </edge>
    <edge id="E00" from="clusterJ4_J5" to="J1" priority="-1" length="100.00" shape="-0.09,-1.52 100.00,0.00">
        <lane id="E00_0" index="0" speed="13.89" length="100.00" shape="13.95,-9.31 100.12,-8.00"/>
        <lane id="E00_1" index="1" speed="13.89" length="100.00" shape="13.90,-6.11 100.07,-4.80"/>
        <lane id="E00_2" index="2" speed="13.89" length="100.00" shape="13.85,-2.91 100.02,-1.60"/>
    </edge>
    <edge id="E1" from="J2" to="clusterJ4_J5" priority="-1" length="100.00" shape="0.00,100.00 0.09,1.51">
        <lane id="E1_0" index="0" speed="13.89" length="100.00" shape="-8.00,99.99 -7.92,12.23"/>
        <lane id="E1_1" index="1" speed="13.89" length="100.00" shape="-4.80,100.00 -4.72,12.23"/>
        <lane id="E1_2" index="2" speed="13.89" length="100.00" shape="-1.60,100.00 -1.52,12.23"/>
    </edge>
    <edge id="E10" from="clusterJ4_J5" to="J3" priority="-1" length="100.00" shape="0.09,1.51 0.00,-100.00">
        <lane id="E10_0" index="0" speed="13.89" length="100.00" shape="-7.92,-14.98 -8.00,-99.99"/>
        <lane id="E10_1" index="1" speed="13.89" length="100.00" shape="-4.72,-14.98 -4.80,-100.00"/>
        <lane id="E10_2" index="2" speed="13.89" length="100.00" shape="-1.52,-14.98 -1.60,-100.00"/>
    </edge>

    <tlLogic id="clusterJ4_J5" type="static" programID="0" offset="0">
        <phase duration="30" state="grrrrrrrrrgrrrrrrrrrgrrrrrrrrrGGGGGGGGGG"/>
        <phase duration="3"  state="grrrrrrrrrgrrrrrrrrrgrrrrrrrrrgyyyyyyyyy"/>
        <phase duration="30" state="grrrrrrrrrgrrrrrrrrrGGGGGGGGGGgrrrrrrrrr"/>
        <phase duration="3"  state="grrrrrrrrrgrrrrrrrrrgyyyyyyyyygrrrrrrrrr"/>
        <phase duration="30"  state="grrrrrrrrrGGGGGGGGGGgrrrrrrrrrgrrrrrrrrr"/>
        <phase duration="3"  state="grrrrrrrrrGyyyyyyyyygrrrrrrrrrgrrrrrrrrr"/>
        <phase duration="30"  state="GGGGGGGGGGgrrrrrrrrrgrrrrrrrrrgrrrrrrrrr"/>
        <phase duration="3"  state="Gyyyyyyyyygrrrrrrrrrgrrrrrrrrrgrrrrrrrrr"/>
    </tlLogic>

    <junction id="J0" type="dead_end" x="-100.00" y="0.00" incLanes="-E0.57_0 -E0.57_1 -E0.57_2" intLanes="" shape="-100.00,-0.00 -99.85,9.60 -100.00,-0.00"/>
    <junction id="J1" type="dead_end" x="100.00" y="0.00" incLanes="E00_0 E00_1 E00_2" intLanes="" shape="100.00,-0.00 100.15,-9.60 100.00,-0.00"/>
    <junction id="J2" type="dead_end" x="0.00" y="100.00" incLanes="-E1.41_0 -E1.41_1 -E1.41_2" intLanes="" shape="0.00,100.00 9.60,100.01 0.00,100.00"/>
    <junction id="J3" type="dead_end" x="0.00" y="-100.00" incLanes="E10_0 E10_1 E10_2" intLanes="" shape="-0.00,-100.00 -9.60,-99.99 0.00,-100.00"/>
    <junction id="clusterJ4_J5" type="traffic_light" x="0.00" y="0.00" incLanes="-E0_0 -E0_1 -E0_2 -E1_0 -E1_1 -E1_2 E0_0 E0_1 E0_2 E1_0 E1_1 E1_2" intLanes=":clusterJ4_J5_0_0 :clusterJ4_J5_1_0 :clusterJ4_J5_1_1 :clusterJ4_J5_3_0 :clusterJ4_J5_4_0 :clusterJ4_J5_5_0 :clusterJ4_J5_5_1 :clusterJ4_J5_7_0 :clusterJ4_J5_7_1 :clusterJ4_J5_7_2 :clusterJ4_J5_10_0 :clusterJ4_J5_11_0 :clusterJ4_J5_11_1 :clusterJ4_J5_40_0 :clusterJ4_J5_14_0 :clusterJ4_J5_15_0 :clusterJ4_J5_15_1 :clusterJ4_J5_17_0 :clusterJ4_J5_17_1 :clusterJ4_J5_17_2 :clusterJ4_J5_20_0 :clusterJ4_J5_21_0 :clusterJ4_J5_21_1 :clusterJ4_J5_23_0 :clusterJ4_J5_24_0 :clusterJ4_J5_25_0 :clusterJ4_J5_25_1 :clusterJ4_J5_27_0 :clusterJ4_J5_27_1 :clusterJ4_J5_27_2 :clusterJ4_J5_30_0 :clusterJ4_J5_31_0 :clusterJ4_J5_31_1 :clusterJ4_J5_41_0 :clusterJ4_J5_34_0 :clusterJ4_J5_35_0 :clusterJ4_J5_35_1 :clusterJ4_J5_37_0 :clusterJ4_J5_37_1 :clusterJ4_J5_37_2" shape="13.68,8.29 13.97,-10.91 11.59,-11.39 10.75,-11.96 10.15,-12.75 9.80,-13.76 9.68,-14.99 -9.52,-14.98 -10.00,-12.75 -10.59,-11.96 -11.43,-11.39 -12.50,-11.04 -13.81,-10.91 -13.52,8.29 -11.29,8.70 -10.52,9.24 -9.96,10.01 -9.63,11.00 -9.52,12.22 9.68,12.24 10.13,10.02 10.68,9.25 11.46,8.70 12.46,8.38">
        <request index="0"  response="0000000000000000000000000101100000000000" foes="1110000000000110100000000101100000000000" cont="0"/>
        <request index="1"  response="0001111111000000000000011111100000000000" foes="0001111111111110100000011111100000000000" cont="0"/>
        <request index="2"  response="0001111111000000000000011111100000000000" foes="0001111111111110100000011111100000000000" cont="0"/>
        <request index="3"  response="0001111110000001111100011111100000010000" foes="0001111110000001111111111111100000010000" cont="0"/>
        <request index="4"  response="0001111111000000000000011111100000000000" foes="0001111111111110100000011111100000001000" cont="0"/>
        <request index="5"  response="0001111110000001011100011111100000000000" foes="0001111110000001011111111111100000000000" cont="0"/>
        <request index="6"  response="0001111110000001011100011111100000000000" foes="0001111110000001011111111111100000000000" cont="0"/>
        <request index="7"  response="0001101000000001011000000000010000000000" foes="0001101000000001011000000000010000000000" cont="0"/>
        <request index="8"  response="0001101000000001011000000000010000000000" foes="0001101000000001011000000000010000000000" cont="0"/>
        <request index="9"  response="0001101000000001011000000000010000000000" foes="0001101000000001011000000000010000000000" cont="0"/>
        <request index="10" response="0000001000000000000000000000000000000000" foes="0001101000000001011000000000001110000000" cont="0"/>
        <request index="11" response="0000001000000000000000000000000000000000" foes="1111101000000111111000000000000001111111" cont="0"/>
        <request index="12" response="0000001000000000000000000000000000000000" foes="1111101000000111111000000000000001111111" cont="0"/>
        <request index="13" response="0000011111000000000000000100000000000000" foes="0000011111111111111000000100000001111110" cont="1"/>
        <request index="14" response="0000001000000000000000000000000000000000" foes="1111101000000111111000000010000001111111" cont="0"/>
        <request index="15" response="0000010111000000000000000000000000000000" foes="0000010111111111111000000000000001111110" cont="0"/>
        <request index="16" response="0000010111000000000000000000000000000000" foes="0000010111111111111000000000000001111110" cont="0"/>
        <request index="17" response="0000010110000000000100000000000001101000" foes="0000010110000000000100000000000001101000" cont="0"/>
        <request index="18" response="0000010110000000000100000000000001101000" foes="0000010110000000000100000000000001101000" cont="0"/>
        <request index="19" response="0000010110000000000100000000000001101000" foes="0000010110000000000100000000000001101000" cont="0"/>
        <request index="20" response="0000010110000000000000000000000000000000" foes="0000010110000000000011100000000001101000" cont="0"/>
        <request index="21" response="0001111110000000000000011111110000000000" foes="0001111110000000000000011111111111101000" cont="0"/>
        <request index="22" response="0001111110000000000000011111110000000000" foes="0001111110000000000000011111111111101000" cont="0"/>
        <request index="23" response="0001111110000001000000011111100000010111" foes="1111111110000001000000011111100000011111" cont="0"/>
        <request index="24" response="0001111110000000000000011111110000000000" foes="0001111110000000100000011111111111101000" cont="0"/>
        <request index="25" response="0001111110000000000000011111100000010111" foes="1111111110000000000000011111100000010111" cont="0"/>
        <request index="26" response="0001111110000000000000011111100000010111" foes="1111111110000000000000011111100000010111" cont="0"/>
        <request index="27" response="0000000001000000000000011010000000010110" foes="0000000001000000000000011010000000010110" cont="0"/>
        <request index="28" response="0000000001000000000000011010000000010110" foes="0000000001000000000000011010000000010110" cont="0"/>
        <request index="29" response="0000000001000000000000011010000000010110" foes="0000000001000000000000011010000000010110" cont="0"/>
        <request index="30" response="0000000000000000000000000010000000000000" foes="0000000000111000000000011010000000010110" cont="0"/>
        <request index="31" response="0000000000000000000000000010000000000000" foes="0000000000000111111111111010000001111110" cont="0"/>
        <request index="32" response="0000000000000000000000000010000000000000" foes="0000000000000111111111111010000001111110" cont="0"/>
        <request index="33" response="0000010000000000000000000101110000000000" foes="0000010000000111111000000111111111111110" cont="1"/>
        <request index="34" response="0000000000000000000000000010000000000000" foes="0000001000000111111111111010000001111110" cont="0"/>
        <request index="35" response="0000000000000000000000000101110000000000" foes="0000000000000111111000000101111111111110" cont="0"/>
        <request index="36" response="0000000000000000000000000101110000000000" foes="0000000000000111111000000101111111111110" cont="0"/>
        <request index="37" response="0000000000000110100000000101100000000001" foes="0000000000000110100000000101100000000001" cont="0"/>
        <request index="38" response="0000000000000110100000000101100000000001" foes="0000000000000110100000000101100000000001" cont="0"/>
        <request index="39" response="0000000000000110100000000101100000000001" foes="0000000000000110100000000101100000000001" cont="0"/>
    </junction>

    <junction id=":clusterJ4_J5_40_0" type="internal" x="1.71" y="-5.42" incLanes=":clusterJ4_J5_13_0 :clusterJ4_J5_33_0" intLanes=":clusterJ4_J5_41_0 :clusterJ4_J5_1_0 :clusterJ4_J5_1_1 :clusterJ4_J5_3_0 :clusterJ4_J5_4_0 :clusterJ4_J5_5_0 :clusterJ4_J5_5_1 :clusterJ4_J5_14_0 :clusterJ4_J5_21_0 :clusterJ4_J5_21_1 :clusterJ4_J5_23_0 :clusterJ4_J5_24_0 :clusterJ4_J5_25_0 :clusterJ4_J5_25_1 :clusterJ4_J5_27_0 :clusterJ4_J5_27_1 :clusterJ4_J5_27_2 :clusterJ4_J5_30_0 :clusterJ4_J5_31_0 :clusterJ4_J5_31_1 :clusterJ4_J5_33_0 :clusterJ4_J5_34_0"/>
    <junction id=":clusterJ4_J5_41_0" type="internal" x="-1.60" y="2.81" incLanes=":clusterJ4_J5_33_0" intLanes=":clusterJ4_J5_1_0 :clusterJ4_J5_1_1 :clusterJ4_J5_3_0 :clusterJ4_J5_4_0 :clusterJ4_J5_5_0 :clusterJ4_J5_5_1 :clusterJ4_J5_7_0 :clusterJ4_J5_7_1 :clusterJ4_J5_7_2 :clusterJ4_J5_10_0 :clusterJ4_J5_11_0 :clusterJ4_J5_11_1 :clusterJ4_J5_13_0 :clusterJ4_J5_14_0 :clusterJ4_J5_21_0 :clusterJ4_J5_21_1 :clusterJ4_J5_23_0 :clusterJ4_J5_24_0 :clusterJ4_J5_25_0 :clusterJ4_J5_25_1 :clusterJ4_J5_34_0"/>

    <connection from="-E0" to="-E1.41" fromLane="0" toLane="0" via=":clusterJ4_J5_0_0" tl="clusterJ4_J5" linkIndex="0" dir="r" state="o"/>
    <connection from="-E0" to="-E0.57" fromLane="0" toLane="0" via=":clusterJ4_J5_1_0" tl="clusterJ4_J5" linkIndex="1" dir="s" state="o"/>
    <connection from="-E0" to="-E0.57" fromLane="1" toLane="1" via=":clusterJ4_J5_1_1" tl="clusterJ4_J5" linkIndex="2" dir="s" state="o"/>
    <connection from="-E0" to="E10" fromLane="1" toLane="0" via=":clusterJ4_J5_3_0" tl="clusterJ4_J5" linkIndex="3" dir="l" state="o"/>
    <connection from="-E0" to="-E0.57" fromLane="2" toLane="2" via=":clusterJ4_J5_4_0" tl="clusterJ4_J5" linkIndex="4" dir="s" state="o"/>
    <connection from="-E0" to="E10" fromLane="2" toLane="1" via=":clusterJ4_J5_5_0" tl="clusterJ4_J5" linkIndex="5" dir="l" state="o"/>
    <connection from="-E0" to="E10" fromLane="2" toLane="2" via=":clusterJ4_J5_5_1" tl="clusterJ4_J5" linkIndex="6" dir="l" state="o"/>
    <connection from="-E0" to="E00" fromLane="2" toLane="0" via=":clusterJ4_J5_7_0" tl="clusterJ4_J5" linkIndex="7" dir="t" state="o"/>
    <connection from="-E0" to="E00" fromLane="2" toLane="1" via=":clusterJ4_J5_7_1" tl="clusterJ4_J5" linkIndex="8" dir="t" state="o"/>
    <connection from="-E0" to="E00" fromLane="2" toLane="2" via=":clusterJ4_J5_7_2" tl="clusterJ4_J5" linkIndex="9" dir="t" state="o"/>
    <connection from="-E1" to="E00" fromLane="0" toLane="0" via=":clusterJ4_J5_10_0" tl="clusterJ4_J5" linkIndex="10" dir="r" state="O"/>
    <connection from="-E1" to="-E1.41" fromLane="0" toLane="0" via=":clusterJ4_J5_11_0" tl="clusterJ4_J5" linkIndex="11" dir="s" state="O"/>
    <connection from="-E1" to="-E1.41" fromLane="1" toLane="1" via=":clusterJ4_J5_11_1" tl="clusterJ4_J5" linkIndex="12" dir="s" state="O"/>
    <connection from="-E1" to="-E0.57" fromLane="1" toLane="0" via=":clusterJ4_J5_13_0" tl="clusterJ4_J5" linkIndex="13" dir="l" state="o"/>
    <connection from="-E1" to="-E1.41" fromLane="2" toLane="2" via=":clusterJ4_J5_14_0" tl="clusterJ4_J5" linkIndex="14" dir="s" state="O"/>
    <connection from="-E1" to="-E0.57" fromLane="2" toLane="1" via=":clusterJ4_J5_15_0" tl="clusterJ4_J5" linkIndex="15" dir="l" state="o"/>
    <connection from="-E1" to="-E0.57" fromLane="2" toLane="2" via=":clusterJ4_J5_15_1" tl="clusterJ4_J5" linkIndex="16" dir="l" state="o"/>
    <connection from="-E1" to="E10" fromLane="2" toLane="0" via=":clusterJ4_J5_17_0" tl="clusterJ4_J5" linkIndex="17" dir="t" state="o"/>
    <connection from="-E1" to="E10" fromLane="2" toLane="1" via=":clusterJ4_J5_17_1" tl="clusterJ4_J5" linkIndex="18" dir="t" state="o"/>
    <connection from="-E1" to="E10" fromLane="2" toLane="2" via=":clusterJ4_J5_17_2" tl="clusterJ4_J5" linkIndex="19" dir="t" state="o"/>
    <connection from="E0" to="E10" fromLane="0" toLane="0" via=":clusterJ4_J5_20_0" tl="clusterJ4_J5" linkIndex="20" dir="r" state="o"/>
    <connection from="E0" to="E00" fromLane="0" toLane="0" via=":clusterJ4_J5_21_0" tl="clusterJ4_J5" linkIndex="21" dir="s" state="o"/>
    <connection from="E0" to="E00" fromLane="1" toLane="1" via=":clusterJ4_J5_21_1" tl="clusterJ4_J5" linkIndex="22" dir="s" state="o"/>
    <connection from="E0" to="-E1.41" fromLane="1" toLane="0" via=":clusterJ4_J5_23_0" tl="clusterJ4_J5" linkIndex="23" dir="l" state="o"/>
    <connection from="E0" to="E00" fromLane="2" toLane="2" via=":clusterJ4_J5_24_0" tl="clusterJ4_J5" linkIndex="24" dir="s" state="o"/>
    <connection from="E0" to="-E1.41" fromLane="2" toLane="1" via=":clusterJ4_J5_25_0" tl="clusterJ4_J5" linkIndex="25" dir="l" state="o"/>
    <connection from="E0" to="-E1.41" fromLane="2" toLane="2" via=":clusterJ4_J5_25_1" tl="clusterJ4_J5" linkIndex="26" dir="l" state="o"/>
    <connection from="E0" to="-E0.57" fromLane="2" toLane="0" via=":clusterJ4_J5_27_0" tl="clusterJ4_J5" linkIndex="27" dir="t" state="o"/>
    <connection from="E0" to="-E0.57" fromLane="2" toLane="1" via=":clusterJ4_J5_27_1" tl="clusterJ4_J5" linkIndex="28" dir="t" state="o"/>
    <connection from="E0" to="-E0.57" fromLane="2" toLane="2" via=":clusterJ4_J5_27_2" tl="clusterJ4_J5" linkIndex="29" dir="t" state="o"/>
    <connection from="E1" to="-E0.57" fromLane="0" toLane="0" via=":clusterJ4_J5_30_0" tl="clusterJ4_J5" linkIndex="30" dir="r" state="O"/>
    <connection from="E1" to="E10" fromLane="0" toLane="0" via=":clusterJ4_J5_31_0" tl="clusterJ4_J5" linkIndex="31" dir="s" state="O"/>
    <connection from="E1" to="E10" fromLane="1" toLane="1" via=":clusterJ4_J5_31_1" tl="clusterJ4_J5" linkIndex="32" dir="s" state="O"/>
    <connection from="E1" to="E00" fromLane="1" toLane="0" via=":clusterJ4_J5_33_0" tl="clusterJ4_J5" linkIndex="33" dir="l" state="o"/>
    <connection from="E1" to="E10" fromLane="2" toLane="2" via=":clusterJ4_J5_34_0" tl="clusterJ4_J5" linkIndex="34" dir="s" state="O"/>
    <connection from="E1" to="E00" fromLane="2" toLane="1" via=":clusterJ4_J5_35_0" tl="clusterJ4_J5" linkIndex="35" dir="l" state="o"/>
    <connection from="E1" to="E00" fromLane="2" toLane="2" via=":clusterJ4_J5_35_1" tl="clusterJ4_J5" linkIndex="36" dir="l" state="o"/>
    <connection from="E1" to="-E1.41" fromLane="2" toLane="0" via=":clusterJ4_J5_37_0" tl="clusterJ4_J5" linkIndex="37" dir="t" state="o"/>
    <connection from="E1" to="-E1.41" fromLane="2" toLane="1" via=":clusterJ4_J5_37_1" tl="clusterJ4_J5" linkIndex="38" dir="t" state="o"/>
    <connection from="E1" to="-E1.41" fromLane="2" toLane="2" via=":clusterJ4_J5_37_2" tl="clusterJ4_J5" linkIndex="39" dir="t" state="o"/>

    <connection from=":clusterJ4_J5_0" to="-E1.41" fromLane="0" toLane="0" dir="r" state="M"/>
    <connection from=":clusterJ4_J5_1" to="-E0.57" fromLane="0" toLane="0" dir="s" state="M"/>
    <connection from=":clusterJ4_J5_1" to="-E0.57" fromLane="1" toLane="1" dir="s" state="M"/>
    <connection from=":clusterJ4_J5_3" to="E10" fromLane="0" toLane="0" dir="l" state="M"/>
    <connection from=":clusterJ4_J5_4" to="-E0.57" fromLane="0" toLane="2" dir="s" state="M"/>
    <connection from=":clusterJ4_J5_5" to="E10" fromLane="0" toLane="1" dir="l" state="M"/>
    <connection from=":clusterJ4_J5_5" to="E10" fromLane="1" toLane="2" dir="l" state="M"/>
    <connection from=":clusterJ4_J5_7" to="E00" fromLane="0" toLane="0" dir="t" state="M"/>
    <connection from=":clusterJ4_J5_7" to="E00" fromLane="1" toLane="1" dir="t" state="M"/>
    <connection from=":clusterJ4_J5_7" to="E00" fromLane="2" toLane="2" dir="t" state="M"/>
    <connection from=":clusterJ4_J5_10" to="E00" fromLane="0" toLane="0" dir="r" state="M"/>
    <connection from=":clusterJ4_J5_11" to="-E1.41" fromLane="0" toLane="0" dir="s" state="M"/>
    <connection from=":clusterJ4_J5_11" to="-E1.41" fromLane="1" toLane="1" dir="s" state="M"/>
    <connection from=":clusterJ4_J5_13" to="-E0.57" fromLane="0" toLane="0" via=":clusterJ4_J5_40_0" dir="l" state="m"/>
    <connection from=":clusterJ4_J5_40" to="-E0.57" fromLane="0" toLane="0" dir="l" state="M"/>
    <connection from=":clusterJ4_J5_14" to="-E1.41" fromLane="0" toLane="2" dir="s" state="M"/>
    <connection from=":clusterJ4_J5_15" to="-E0.57" fromLane="0" toLane="1" dir="l" state="M"/>
    <connection from=":clusterJ4_J5_15" to="-E0.57" fromLane="1" toLane="2" dir="l" state="M"/>
    <connection from=":clusterJ4_J5_17" to="E10" fromLane="0" toLane="0" dir="t" state="M"/>
    <connection from=":clusterJ4_J5_17" to="E10" fromLane="1" toLane="1" dir="t" state="M"/>
    <connection from=":clusterJ4_J5_17" to="E10" fromLane="2" toLane="2" dir="t" state="M"/>
    <connection from=":clusterJ4_J5_20" to="E10" fromLane="0" toLane="0" dir="r" state="M"/>
    <connection from=":clusterJ4_J5_21" to="E00" fromLane="0" toLane="0" dir="s" state="M"/>
    <connection from=":clusterJ4_J5_21" to="E00" fromLane="1" toLane="1" dir="s" state="M"/>
    <connection from=":clusterJ4_J5_23" to="-E1.41" fromLane="0" toLane="0" dir="l" state="M"/>
    <connection from=":clusterJ4_J5_24" to="E00" fromLane="0" toLane="2" dir="s" state="M"/>
    <connection from=":clusterJ4_J5_25" to="-E1.41" fromLane="0" toLane="1" dir="l" state="M"/>
    <connection from=":clusterJ4_J5_25" to="-E1.41" fromLane="1" toLane="2" dir="l" state="M"/>
    <connection from=":clusterJ4_J5_27" to="-E0.57" fromLane="0" toLane="0" dir="t" state="M"/>
    <connection from=":clusterJ4_J5_27" to="-E0.57" fromLane="1" toLane="1" dir="t" state="M"/>