<?xml version="1.0" encoding="UTF-8"?>

<!-- generated on 2026-07-11T14:36:15.275757+03:00 by Eclipse SUMO netedit 1.27.1
-->

<routes xmlns:xsi="http://www.w3.org/2001/XMLSchema-instance" xsi:noNamespaceSchemaLocation="http://sumo.dlr.de/xsd/routes_file.xsd">
    <!-- Vehicles, persons and containers (sorted by depart) -->
    <flow id="f_0" begin="0.00" end="3600.00" perHour="1800.00" from="E0" to="E00"/>
    <flow id="f_1" begin="0.00" end="3600.00" perHour="1800.00" from="E0" to="-E1.41"/>
    <flow id="f_10" begin="0.00" end="3600.00" perHour="1800.00" from="E1" to="E10"/>
    <flow id="f_11" begin="0.00" end="3600.00" perHour="1800.00" from="E1" to="E00"/>
    <flow id="f_2" begin="0.00" end="3600.00" perHour="1800.00" from="E0" to="E10"/>
    <flow id="f_3" begin="0.00" end="3600.00" perHour="1800.00" from="-E1" to="-E1.41"/>
    <flow id="f_4" begin="0.00" end="3600.00" perHour="1800.00" from="-E1" to="E00"/>
    <flow id="f_5" begin="0.00" end="3600.00" perHour="1800.00" from="-E1" to="-E0.57"/>
    <flow id="f_6" begin="0.00" end="3600.00" perHour="1800.00" from="-E0" to="E10"/>
    <flow id="f_7" begin="0.00" end="3600.00" perHour="1800.00" from="-E0" to="-E0.57"/>
    <flow id="f_8" begin="0.00" end="3600.00" perHour="1800.00" from="-E0" to="-E1.41"/>
    <flow id="f_9" begin="0.00" end="3600.00" perHour="1800.00" from="E1" to="-E0.57"/>
</routes>
