<?xml version="1.0" encoding="UTF-8"?>

<!-- generated on 2026-07-11T15:08:42.641640+03:00 by Eclipse SUMO sumo 1.27.1
-->

<sumoConfiguration xmlns:xsi="http://www.w3.org/2001/XMLSchema-instance" xsi:noNamespaceSchemaLocation="http://sumo.dlr.de/xsd/sumoConfiguration.xsd">

    <input>
        <net-file value="networkfile.net.xml"/>
        <route-files value="demandelements.rou.xml"/>
    </input>

</sumoConfiguration>
