<?xml version="1.0" encoding="UTF-8"?>

<!-- Generated on 2026-07-11T14:22:32.964124+03:00 by Eclipse SUMO netedit 1.27.1
<neteditConfiguration xmlns:xsi="http://www.w3.org/2001/XMLSchema-instance" xsi:noNamespaceSchemaLocation="http://sumo.dlr.de/xsd/neteditConfiguration.xsd">

    <input>
        <sumo-net-file value="C:\Users\Prank\trading-lab\trafficproject\networkfile.net.xml"/>
    </input>

    <processing>
        <Geometry.min-radius.fix.railways value="false"/>
        <Geometry.avoid-overlap value="false"/>
        <Geometry.max-Grade.fix value="false"/>
        <offset.disable-normalization value="true"/>
    </processing>

    <junctions>
        <no-turnarounds value="true"/>
    </junctions>

</neteditConfiguration>
-->

<additional xmlns:xsi="http://www.w3.org/2001/XMLSchema-instance" xsi:noNamespaceSchemaLocation="http://sumo.dlr.de/xsd/additional_file.xsd">
    <tlLogic id="clusterJ4_J5" type="static" programID="0" offset="0">
        <phase duration="42" state="GrrrrrrrrrGrrrrrrrrrGrrrrrrrrrGGGGGGGGGG"/>
        <phase duration="3"  state="GrrrrrrrrrGrrrrrrrrrGrrrrrrrrrGyyyyyyyyy"/>
        <phase duration="42" state="GrrrrrrrrrGrrrrrrrrrGGGGGGGGGGGrrrrrrrrr"/>
        <phase duration="3"  state="GrrrrrrrrrGrrrrrrrrrGyyyyyyyyyGrrrrrrrrr"/>
        <phase duration="6"  state="GrrrrrrrrrGGGGGGGGGGGrrrrrrrrrGrrrrrrrrr"/>
        <phase duration="3"  state="GrrrrrrrrrGyyyyyyyyyGrrrrrrrrrGrrrrrrrrr"/>
        <phase duration="6"  state="GGGGGGGGGGGrrrrrrrrrGrrrrrrrrrGrrrrrrrrr"/>
        <phase duration="3"  state="GyyyyyyyyyGrrrrrrrrrGrrrrrrrrrGrrrrrrrrr"/>
    </tlLogic>
</additional>
